%%%%%%%%%%%%%%%%%%%%%%%%%%%%%%%%%%%%%%%%%%%%%%%%%%%%%%%%%%%%%%%%%%%%%%%%%%%%%%%
%                                                                              %
% SU2 configuration file                                                       %
% Case description: Laminar premixed hydrogen 2D slit burner                   %
% Author: Cristopher Morales Ubal                                              %
% Institution: Eindhoven University of Technology                              %
% Date: 2024/06/27                                                             %
% File Version 8.0.0 "Harrier"                                                 %
%                                                                              %
%%%%%%%%%%%%%%%%%%%%%%%%%%%%%%%%%%%%%%%%%%%%%%%%%%%%%%%%%%%%%%%%%%%%%%%%%%%%%%%%

% ------------- DIRECT, ADJOINT, AND LINEARIZED PROBLEM DEFINITION ------------%
%
SOLVER= INC_NAVIER_STOKES
KIND_TURB_MODEL= NONE
MATH_PROBLEM= DIRECT
RESTART_SOL = YES
WRT_ZONE_HIST= YES
% ---------------- INCOMPRESSIBLE FLOW CONDITION DEFINITION -------------------%
%
INC_DENSITY_MODEL= VARIABLE
INC_VELOCITY_INIT= (0.0, 0.565, 0.0)
INC_ENERGY_EQUATION= YES
INC_TEMPERATURE_INIT= 300.0
THERMODYNAMIC_PRESSURE= 101325.0
INC_NONDIM= DIMENSIONAL

% -------------------- FLUID MODEL --------------------------------------- %
%
FLUID_MODEL= FLUID_CANTERA
COMBUSTION = YES
VISCOSITY_MODEL= CANTERA
CONDUCTIVITY_MODEL= CANTERA
%
GAS_COMPOSITION_NAMES= H2, H, O, O2, OH, H2O, HO2, H2O2, AR, N2
CHEMICAL_MECHANISM_FILE= h2o2.yaml
PHASE_NAME= ohmech
TRANSPORT_MODEL= mixture-averaged %mixture-averaged % multicomponent % unity-Lewis-number
%
% -------------------- SCALAR TRANSPORT ---------------------------------------%
%
% Using an artificial spark to ignite the solution at some location and iteration
FLAME_INIT_METHOD= SPARK
% Spark parameters in order:
% x-location of spark center (m)
% y-location of spark center (m)
% z-location of spark center (m)
% Spark radius (m)
% Iteration at which the artificial spark starts
% Spark iteration duration
SPARK_INIT= (0.0, 0.002, 0.0, 1e-3, 500000, 50) %(0.0, 0.002, 0.0, 1e-3, 200, 300)
% Controlling variable source terms applied within the spark sphere for the spark
% duration.
SPARK_TEMPERATURE= 1400
% equivalence ratio phi=0.5
SPECIES_INIT= 0.014467517838966,0.0, 0.0, 0.229628787604782, 0.0, 0.0, 0.0, 0.0,0.0
SPECIES_CLIPPING=YES
SPECIES_CLIPPING_MAX= 0.015, 0.001, 0.005,0.23, 0.01, 0.22, 0.01, 0.005, 0.0000001 
SPECIES_CLIPPING_MIN=  0.0, 0.0, 0.0, 0.0, 0.0, 0.0, 0.0, 0.0, 0.0

% -------------------- BOUNDARY CONDITION DFINITION --------------------------%
%
%
MARKER_SYM= ( symmetry )
MARKER_ISOTHERMAL = (solid_fluid, 300)
%
SPECIFIED_INLET_PROFILE= NO
INLET_FILENAME= inlet_venturi.dat
INC_INLET_TYPE=  VELOCITY_INLET
MARKER_INLET= ( inlet, 300, 0.565, 0.0, 1.0, 0.0)
MARKER_INLET_SPECIES = (inlet, 0.014467517838966,0.0, 0.0, 0.229628787604782,0.0, 0.0,0.0, 0.0,0.0)        
%           
%
INC_OUTLET_TYPE= PRESSURE_OUTLET
MARKER_OUTLET= ( outlet, 0.0 )
%
% ------------- COMMON PARAMETERS DEFINING THE NUMERICAL METHOD ---------------%
%
NUM_METHOD_GRAD= WEIGHTED_LEAST_SQUARES
%
CFL_NUMBER= 10 %10 
CFL_REDUCTION_SPECIES= 0.1 %1.0
% Run commented Iter for good results
ITER= 300000
%
%
% ------------------------ LINEAR SOLVER DEFINITION ---------------------------%
%
LINEAR_SOLVER= FGMRES
LINEAR_SOLVER_PREC= ILU %LU_SGS
LINEAR_SOLVER_ERROR= 1E-08
LINEAR_SOLVER_ITER= 10
%
% -------------------- FLOW AND SPECIES NUMERICAL METHOD DEFINITION -----------------------%
%
CONV_NUM_METHOD_FLOW= FDS
MUSCL_FLOW= NO
SLOPE_LIMITER_FLOW = NONE
TIME_DISCRE_FLOW= EULER_IMPLICIT
%
% -------------------- SCALAR TRANSPORT ---------------------------------------%
%
KIND_SCALAR_MODEL= SPECIES_TRANSPORT
DIFFUSIVITY_MODEL= CANTERA
DIFFUSIVITY_CONSTANT= 0.00005
%
CONV_NUM_METHOD_SPECIES= BOUNDED_SCALAR
MUSCL_SPECIES= NO
SLOPE_LIMITER_SPECIES = NONE
%
TIME_DISCRE_SPECIES= EULER_IMPLICIT
%
% --------------------------- CONVERGENCE PARAMETERS --------------------------%
%
CONV_FIELD= RMS_PRESSURE, RMS_VELOCITY-X, RMS_VELOCITY-Y, RMS_SPECIES_H2, RMS_ENTHALPY
CONV_RESIDUAL_MINVAL= -18
CONV_STARTITER= 10
%
% ------------------------- INPUT/OUTPUT INFORMATION --------------------------%
%
SCREEN_OUTPUT= INNER_ITER WALL_TIME \
               RMS_RES \
               RMS_SPECIES_H2 RMS_SPECIES_O2 RMS_ENTHALPY\
               LINSOL_ITER LINSOL_RESIDUAL
SCREEN_WRT_FREQ_INNER= 10
%
HISTORY_OUTPUT= ITER RMS_RES
CONV_FILENAME= history
MARKER_ANALYZE= inlet, outlet
MARKER_ANALYZE_AVERAGE= AREA
%
OUTPUT_FILES= RESTART_ASCII, PARAVIEW_MULTIBLOCK
VOLUME_OUTPUT= RESIDUAL, PRIMITIVE
MESH_FILENAME= 2D_slit_burner_mesh.su2
OUTPUT_WRT_FREQ= 1000
%
READ_BINARY_RESTART= NO
TABULAR_FORMAT= CSV
RESTART_FILENAME= restart.csv
SOLUTION_FILENAME= solution.csv
